&domains
 np = 162 
 locs_as_xyz = .true.
 n_scvt_iterations = 1000
 eps = 1.0e-10
 l2_conv = .true.
 inf_conv = .false.
 min_dx = 120000.0
 report_interval = 1
 restart_interval = 1000
/
